Version 4.1
SHEET 1 1904 880
WIRE -320 -368 -320 -432
WIRE -160 -368 -160 -416
WIRE 16 -368 16 -416
WIRE 224 -368 16 -368
WIRE 224 -304 224 -368
WIRE 16 -272 16 -368
WIRE -320 -208 -320 -288
WIRE -160 -208 -160 -288
WIRE 224 -176 224 -224
WIRE 256 -176 224 -176
WIRE 336 -176 336 -240
WIRE 336 -176 320 -176
WIRE 352 -176 336 -176
WIRE 496 -176 432 -176
WIRE 224 -128 224 -176
WIRE -96 -80 -144 -80
WIRE 16 -80 16 -192
WIRE 16 -80 -32 -80
WIRE 160 -80 16 -80
WIRE -144 -48 -144 -80
WIRE 224 0 224 -32
WIRE 512 32 480 32
WIRE 624 32 592 32
WIRE 800 32 752 32
WIRE 928 32 880 32
WIRE -144 80 -144 32
WIRE 224 112 224 80
WIRE 16 128 16 -80
WIRE 928 144 928 32
WIRE 928 144 880 144
WIRE 992 144 928 144
WIRE 1120 144 1072 144
WIRE 624 160 624 32
WIRE 624 160 592 160
WIRE 640 160 624 160
WIRE 752 160 752 32
WIRE 752 160 720 160
WIRE 816 160 752 160
WIRE 368 176 272 176
WIRE 480 176 480 32
WIRE 480 176 368 176
WIRE 528 176 480 176
WIRE 928 176 880 176
WIRE 1120 176 1120 144
WIRE 624 192 592 192
WIRE 224 208 128 208
WIRE 928 208 928 176
WIRE 368 224 368 176
WIRE 624 224 624 192
WIRE 224 240 224 208
WIRE 128 256 128 208
WIRE 928 304 928 288
WIRE 1120 304 1120 256
WIRE 16 336 16 208
WIRE 128 336 128 320
WIRE 128 336 16 336
WIRE 224 336 224 320
WIRE 224 336 128 336
WIRE 368 336 368 304
WIRE 368 336 224 336
WIRE 1264 336 1184 336
WIRE 1328 336 1264 336
WIRE 1440 336 1408 336
WIRE 1184 352 1184 336
WIRE 624 368 624 304
WIRE 672 368 624 368
WIRE 800 368 752 368
WIRE 1104 384 960 384
WIRE 224 400 224 336
WIRE 1104 448 1104 384
WIRE 1104 448 1056 448
WIRE 1264 448 1264 336
WIRE 800 464 800 368
WIRE 800 464 752 464
WIRE 848 464 800 464
WIRE 960 464 960 384
WIRE 960 464 928 464
WIRE 992 464 960 464
WIRE 624 480 624 368
WIRE 688 480 624 480
WIRE 1184 480 1184 432
WIRE 1184 480 1056 480
WIRE 1232 480 1184 480
WIRE 800 496 752 496
WIRE 1184 512 1184 480
WIRE 800 592 800 496
WIRE 1184 624 1184 592
WIRE 1264 624 1264 512
WIRE 1264 624 1184 624
WIRE 1184 656 1184 624
FLAG -160 -208 0
FLAG -160 -416 Vcc
FLAG 16 -416 Vcc
FLAG 496 -176 0
FLAG -144 80 0
FLAG 336 -240 out
FLAG 848 128 Vcc
FLAG 1120 304 0
FLAG -320 -432 0
FLAG -320 -208 -Vcc
FLAG 848 192 -Vcc
FLAG 928 304 0
FLAG 560 144 Vcc
FLAG 560 208 -Vcc
FLAG 720 448 Vcc
FLAG 720 512 -Vcc
FLAG 800 592 0
FLAG 224 400 0
FLAG 1440 336 Vcc
FLAG 1184 656 0
FLAG 1024 496 -Vcc
FLAG 1024 432 Vcc
SYMBOL npn 160 -128 R0
SYMATTR InstName Q1
SYMATTR Value BC547C
SYMBOL res 208 -16 R0
SYMATTR InstName R1
SYMATTR Value 10
SYMBOL njf 272 112 M0
WINDOW 0 -17 36 Left 2
WINDOW 3 -50 92 Left 2
SYMATTR InstName J1
SYMATTR Value 2N5485
SYMBOL res 0 -288 R0
SYMATTR InstName R2
SYMATTR Value 47k
SYMBOL res 0 112 R0
SYMATTR InstName R3
SYMATTR Value 4.7k
SYMBOL res 208 -320 R0
SYMATTR InstName R4
SYMATTR Value 3.3k
SYMBOL Misc\\battery -160 -384 R0
SYMATTR InstName V1
SYMATTR Value 9
SYMBOL res 448 -192 R90
WINDOW 0 0 56 VBottom 2
WINDOW 3 32 56 VTop 2
SYMATTR InstName LOAD
SYMATTR Value 1k
SYMBOL cap 320 -192 R90
WINDOW 0 0 32 VBottom 2
WINDOW 3 32 32 VTop 2
SYMATTR InstName C1
SYMATTR Value 1µ
SYMBOL res 352 208 R0
SYMATTR InstName R5
SYMATTR Value 100k
SYMBOL res 208 224 R0
SYMATTR InstName R6
SYMATTR Value 10
SYMBOL voltage -144 -64 R0
WINDOW 0 -99 14 Left 2
WINDOW 3 -167 103 Left 2
WINDOW 123 0 0 Left 0
WINDOW 39 0 0 Left 0
SYMATTR InstName INPUT
SYMATTR Value SINE(0 .1 1k)
SYMBOL cap 112 256 R0
SYMATTR InstName C3
SYMATTR Value 1µ
SYMBOL OpAmps\\OP07 848 96 M0
WINDOW 0 27 41 Left 2
WINDOW 3 22 84 Left 2
SYMATTR InstName U1
SYMBOL voltage 1120 160 R0
WINDOW 123 0 0 Left 0
WINDOW 39 0 0 Left 0
SYMATTR InstName V3
SYMATTR Value 5
SYMBOL Misc\\battery -320 -384 R0
SYMATTR InstName V2
SYMATTR Value 9
SYMBOL res 896 16 R90
WINDOW 0 0 56 VBottom 2
WINDOW 3 32 56 VTop 2
SYMATTR InstName R9
SYMATTR Value 5k
SYMBOL res 944 304 R180
WINDOW 0 36 76 Left 2
WINDOW 3 36 40 Left 2
SYMATTR InstName R8
SYMATTR Value 1k
SYMBOL OpAmps\\OP07 560 112 M0
WINDOW 0 27 41 Left 2
WINDOW 3 22 84 Left 2
SYMATTR InstName U2
SYMBOL res 608 16 R90
WINDOW 0 0 56 VBottom 2
WINDOW 3 32 56 VTop 2
SYMATTR InstName R13
SYMATTR Value 10k
SYMBOL res 736 144 R90
WINDOW 0 0 56 VBottom 2
WINDOW 3 32 56 VTop 2
SYMATTR InstName R11
SYMATTR Value 10k
SYMBOL res 976 160 R270
WINDOW 0 32 56 VTop 2
WINDOW 3 0 56 VBottom 2
SYMATTR InstName R10
SYMATTR Value 10k
SYMBOL res 640 320 R180
WINDOW 0 -50 62 Left 2
WINDOW 3 -48 38 Left 2
SYMATTR InstName R14
SYMATTR Value 10k
SYMBOL res 944 448 R90
WINDOW 0 0 56 VBottom 2
WINDOW 3 32 56 VTop 2
SYMATTR InstName R12
SYMATTR Value 1k
SYMBOL res 768 352 R90
WINDOW 0 -2 57 VBottom 2
WINDOW 3 -30 7 VTop 2
SYMATTR InstName R15
SYMATTR Value 2k
SYMBOL OpAmps\\OP07 720 416 M0
WINDOW 0 27 41 Left 2
WINDOW 3 22 84 Left 2
SYMATTR InstName U3
SYMBOL cap -32 -96 R90
WINDOW 0 0 32 VBottom 2
WINDOW 3 32 32 VTop 2
SYMATTR InstName C2
SYMATTR Value 1µ
SYMBOL References\\RH1009 1264 480 M0
WINDOW 3 -108 39 Left 2
WINDOW 0 -37 -38 Left 2
SYMATTR InstName U4
SYMBOL res 1312 352 R270
WINDOW 0 32 56 VTop 2
WINDOW 3 0 56 VBottom 2
SYMATTR InstName R20
SYMATTR Value 2k
SYMBOL res 1200 448 R180
WINDOW 0 36 76 Left 2
WINDOW 3 36 40 Left 2
SYMATTR InstName R21
SYMATTR Value 4k
SYMBOL res 1200 608 R180
WINDOW 0 36 76 Left 2
WINDOW 3 36 40 Left 2
SYMATTR InstName R22
SYMATTR Value 1k
SYMBOL OpAmps\\OP07 1024 400 M0
WINDOW 0 27 41 Left 2
WINDOW 3 22 84 Left 2
SYMATTR InstName U5
TEXT -256 392 Left 2 !.tran 0 .1 0.09
TEXT 328 144 Left 2 ;-1...-0.05V
TEXT -256 424 Left 2 !.option noopiter
TEXT -256 456 Left 2 !.options method=gear reltol=1e-3
TEXT 456 472 Left 2 ;offset voltage
TEXT 1320 472 Left 2 ;~0.5V
TEXT 776 -32 Left 2 ;1/5 divider
TEXT 440 -32 Left 2 ;180° phase shifter
